/*--------------------------------*- C++ -*----------------------------------*\
| =========                 |                                                 |
| \\      /  F ield         | OpenFOAM: The Open Source CFD Toolbox           |
|  \\    /   O peration     | Version:  2412                                  |
|   \\  /    A nd           | Website:  www.openfoam.com                      |
|    \\/     M anipulation  |                                                 |
\*---------------------------------------------------------------------------*/
FoamFile
{
    version     2.0;
    format      ascii;
    arch        "LSB;label=32;scalar=64";
    class       polyBoundaryMesh;
    location    "constant/polyMesh";
    object      boundary;
}
// * * * * * * * * * * * * * * * * * * * * * * * * * * * * * * * * * * * * * //

4
(
    inLet
    {
        type            patch;
        nFaces          400;
        startFace       79580;
    }
    outLet
    {
        type            patch;
        nFaces          400;
        startFace       79980;
    }
    diamondWall
    {
        type            wall;
        inGroups        1(wall);
        nFaces          40;
        startFace       80380;
    }
    backAndFront
    {
        type            empty;
        inGroups        1(empty);
        nFaces          80000;
        startFace       80420;
    }
)

// ************************************************************************* //
