// vim:syntax=cpp:ts=2:et
/*--------------------------------*- C++ -*----------------------------------*\
| =========                 |                                                 |
| \\      /  F ield         | OpenFOAM: The Open Source CFD Toolbox           |
|  \\    /   O peration     | Version:  2412                                  |
|   \\  /    A nd           | Website:  www.openfoam.com                      |
|    \\/     M anipulation  |                                                 |
\*---------------------------------------------------------------------------*/
FoamFile
{
  version     2.0;
  format      ascii;
  arch        "LSB;label=32;scalar=64";
  class       dictionary;
  location    "system";
  object      fvOptions;
}
//===========================================================================//
limitT
{
	type          limitTemperature;
	active        yes;
	min           100;
	max           1000;
	selectionMode all;
}
