// vim:syntax=cpp:ts=2:et
/*--------------------------------*- C++ -*----------------------------------*\
| =========                 |                                                 |
| \\      /  F ield         | OpenFOAM: The Open Source CFD Toolbox           |
|  \\    /   O peration     | Version:  2412                                  |
|   \\  /    A nd           | Website:  www.openfoam.com                      |
|    \\/     M anipulation  |                                                 |
\*---------------------------------------------------------------------------*/
FoamFile
{
    version     2.0;
    format      ascii;
    arch        "LSB;label=32;scalar=64";
    class       dictionary;
    location    "system";
    object      fvSolution;
}
//===========================================================================//
#include "../VarParams"

solvers
{
  "p"
  {
    solver          GAMG;
    tolerance       1e-6;
    relTol          0.1;
    smoother        GaussSeidel;
    nPreSweeps      0;
    nPostSweeps     2;
  }

  "U"
  {
    solver          PBiCG;
    preconditioner  DIC;
    tolerance       1e-6;
    relTol          0.1;
  }

  "k"
  {
    solver          PBiCG;
    preconditioner  DIC;
    tolerance       1e-6;
    relTol          0.1;
  }

  "omega"
  {
    solver          PBiCG;
    preconditioner  DIC;
    tolerance       1e-6;
    relTol          0.1;
  }
}

SIMPLE
{
  nOuterCorrectors 1;
  nCorrectors       1;
  nNonOrthogonalCorrectors 0;
  residualControl
  {
    p   1e-4;
    U   1e-4;
    k   1e-4;
    omega   1e-4;
  }
}

pressureCorrection
{
  pRefCell         0;
  pRefValue        __p0__;
}

PISO
{
  nOuterCorrectors 3;
  nCorrectors      2;
}
