// vim:syntax=cpp:ts=2:et
/*--------------------------------*- C++ -*----------------------------------*\
| =========                 |                                                 |
| \\      /  F ield         | OpenFOAM: The Open Source CFD Toolbox           |
|  \\    /   O peration     | Version:  2412                                  |
|   \\  /    A nd           | Website:  www.openfoam.com                      |
|    \\/     M anipulation  |                                                 |
\*---------------------------------------------------------------------------*/
FoamFile
{
  version     2.0;
  format      ascii;
  arch        "LSB;label=32;scalar=64";
  class       volVectorField;
  location    "0";
  object      T;
}
//===========================================================================//
#include      "../VarParams"

dimensions    [0 1 -1 0 0 0 0];

// NB: "internalField" is not much important for steady-state simulations;
// it is recommended to set it to the same values as the "inLet":
//
internalField uniform ($__UooX__ $__UooY__ 0);

boundaryField
{
  inLet
  {
    type      fixedValue;
    value     uniform ($__UooX__ $__UooY__ 0);
  }

  outLet
  {
    // NB: For "U", "zeroGradient" should work in all regimes:
    type      zeroGradient;
  }

  diamondWall
  {
    // NB: For inviscous flow, the boundary condition must be "slip" (which
    // allows for non-0 tangential velocities, rather "fixedValue 0" (which
    // would imply a viscous boundary layer):
    type      slip;
  }

  backAndFront
  {
    type      empty;
  }
}
