// vim:syntax=cpp:ts=2:et
/*--------------------------------*- C++ -*----------------------------------*\
| =========                 |                                                 |
| \\      /  F ield         | OpenFOAM: The Open Source CFD Toolbox           |
|  \\    /   O peration     | Version:  2412                                  |
|   \\  /    A nd           | Website:  www.openfoam.com                      |
|    \\/     M anipulation  |                                                 |
\*---------------------------------------------------------------------------*/
FoamFile
{
  version       2.0;
  format        ascii;
  arch          "LSB;label=32;scalar=64";
  class         dictionary;
  location      "constant";
  object        turbulenceProperties;
}
//===========================================================================//
simulationType  laminar;   // FOr Turbulence effects, set simulationType=RAS

/*
#include        "../VarParams"
RAS
{
  // Turbulence Model:
  RASModel      kOmegaSST; // Alt: SpalartAllmaras
  turbulence    on;

  printCoeffs   on;
  Pr            $__Pr0__;
  Prt           0.9;
}
*/

// XXX: IMPORTANT:
// 0/U        Velocity Field
// 0/p        Static Pressure Field
// 0/T        Temperatire Field (since the flow is compressible!)

// For simulationType=RAS and RAS.RASModel=kOmegaSST, the following extra
// initial conds are required:
// 0/phi      Flux Field (usually "calculated")
// 0/nut      Turbulent Kinematic Viscosity
// 0/k        Turbulent Kinetic Energy
// 0/omega    Specific Turbulence Dissipation Rate
//
// And for RASModel=SpalartAllmaras, the following extra init conds are
// required:
// 0/nuTilda
